# generated using pymatgen
data_H5C2NO2
_symmetry_space_group_name_H-M   'P 1'
_cell_length_a   10.00000000
_cell_length_b   10.00000000
_cell_length_c   10.00000000
_cell_angle_alpha   90.00000000
_cell_angle_beta   90.00000000
_cell_angle_gamma   90.00000000
_symmetry_Int_Tables_number   1
_chemical_formula_structural   H5C2NO2
_chemical_formula_sum   'H5 C2 N1 O2'
_cell_volume   1000.00000000
_cell_formula_units_Z   1
loop_
 _symmetry_equiv_pos_site_id
 _symmetry_equiv_pos_as_xyz
  1  'x, y, z'
loop_
 _atom_site_type_symbol
 _atom_site_label
 _atom_site_symmetry_multiplicity
 _atom_site_fract_x
 _atom_site_fract_y
 _atom_site_fract_z
 _atom_site_occupancy
  H  H0  1  -0.17656962  -0.05980112  0.01624825  1
  H  H1  1  -0.09774562  0.00526988  0.16186425  1
  H  H2  1  0.13287338  -0.17052512  -0.08589675  1
  H  H3  1  -0.22083362  0.17271188  0.03509025  1
  H  H4  1  -0.06292962  0.21126288  0.02354425  1
  C  C5  1  -0.09849162  0.01104388  0.05082325  1
  C  C6  1  0.03851038  -0.03037412  0.00163125  1
  N  N7  1  -0.13268662  0.14469188  -0.00225975  1
  O  O8  1  0.04387038  -0.15174712  -0.05772175  1
  O  O9  1  0.14410538  0.02957588  0.01081925  1
